iidm/iidm-modification/src/test/resources/network_one_voltage_level.xiidm
<?xml version="1.0" encoding="UTF-8"?>
<iidm:network xmlns:iidm="http://www.powsybl.org/schema/iidm/1_18" xmlns:bbsp="http://www.itesla_project.eu/schema/iidm/ext/busbarsectionposition/1_0" id="fictitious" caseDate="2021-08-27T14:44:56.567+02:00" forecastDistance="0" sourceFormat="test" minimumValidationLevel="STEADY_STATE_HYPOTHESIS">
    <iidm:voltageLevel id="VLTEST" nominalV="380.0" topologyKind="NODE_BREAKER">
        <iidm:nodeBreakerTopology>
            <iidm:busbarSection id="VLTEST11" node="0"/>
            <iidm:busbarSection id="VLTEST21" node="1"/>
            <iidm:busbarSection id="VLTEST31" node="2"/>
            <iidm:busbarSection id="VLTEST12" node="3"/>
            <iidm:busbarSection id="VLTEST22" node="4"/>
            <iidm:busbarSection id="VLTEST32" node="5"/>
            <iidm:busbarSection id="VLTEST13" node="6"/>
            <iidm:busbarSection id="VLTEST23" node="7"/>
            <iidm:busbarSection id="VLTEST33" node="8"/>
            <iidm:busbarSection id="VLTEST14" node="9"/>
            <iidm:busbarSection id="VLTEST24" node="10"/>
            <iidm:busbarSection id="VLTEST34" node="11"/>
            <iidm:switch id="VLTEST_DISCONNECTOR11_1" kind="DISCONNECTOR" open="false" node1="0" node2="12"/>
            <iidm:switch id="VLTEST_BREAKER11" kind="BREAKER" retained="true" open="false" node1="12" node2="13"/>
            <iidm:switch id="VLTEST_DISCONNECTOR11_2" kind="DISCONNECTOR" open="false" node1="13" node2="3"/>
            <iidm:switch id="VLTEST_DISCONNECTOR21_1" kind="DISCONNECTOR" open="false" node1="1" node2="14"/>
            <iidm:switch id="VLTEST_BREAKER21" kind="BREAKER" retained="true" open="false" node1="14" node2="15"/>
            <iidm:switch id="VLTEST_DISCONNECTOR21_2" kind="DISCONNECTOR" open="false" node1="15" node2="4"/>
            <iidm:switch id="VLTEST_DISCONNECTOR31_1" kind="DISCONNECTOR" open="false" node1="2" node2="16"/>
            <iidm:switch id="VLTEST_BREAKER31" kind="BREAKER" retained="true" open="false" node1="16" node2="17"/>
            <iidm:switch id="VLTEST_DISCONNECTOR31_2" kind="DISCONNECTOR" open="false" node1="17" node2="5"/>
            <iidm:switch id="VLTEST_DISCONNECTOR12" kind="DISCONNECTOR" open="false" node1="3" node2="6"/>
            <iidm:switch id="VLTEST_DISCONNECTOR22" kind="DISCONNECTOR" open="false" node1="4" node2="7"/>
            <iidm:switch id="VLTEST_DISCONNECTOR32" kind="DISCONNECTOR" open="false" node1="5" node2="8"/>
            <iidm:switch id="VLTEST_DISCONNECTOR13" kind="DISCONNECTOR" open="false" node1="6" node2="9"/>
            <iidm:switch id="VLTEST_DISCONNECTOR23" kind="DISCONNECTOR" open="false" node1="7" node2="10"/>
            <iidm:switch id="VLTEST_DISCONNECTOR33" kind="DISCONNECTOR" open="false" node1="8" node2="11"/>
        </iidm:nodeBreakerTopology>
    </iidm:voltageLevel>
    <iidm:substation id="A" country="FR">
        <iidm:voltageLevel id="C" nominalV="225.0" lowVoltageLimit="0.0" topologyKind="NODE_BREAKER">
            <iidm:nodeBreakerTopology>
                <iidm:busbarSection id="D" name="E" node="0"/>
                <iidm:switch id="F" name="G" fictitious="true" kind="DISCONNECTOR" open="false" node1="0" node2="1"/>
                <iidm:switch id="H" name="I" fictitious="true" kind="DISCONNECTOR" open="false" node1="0" node2="3"/>
                <iidm:switch id="J" name="K" fictitious="true" kind="BREAKER" retained="true" open="false" node1="1" node2="2"/>
                <iidm:switch id="L" name="M" fictitious="true" kind="BREAKER" retained="true" open="false" node1="3" node2="4"/>
                <iidm:bus v="234.40912" angle="0.0" nodes="0,1,2,3,4"/>
            </iidm:nodeBreakerTopology>
        </iidm:voltageLevel>
        <iidm:voltageLevel id="N" nominalV="225.0" lowVoltageLimit="220.0" highVoltageLimit="245.00002" topologyKind="NODE_BREAKER">
            <iidm:nodeBreakerTopology>
                <iidm:busbarSection id="O" name="E" node="0"/>
                <iidm:busbarSection id="P" name="Q" node="1"/>
                <iidm:switch id="R" name="S" kind="DISCONNECTOR" open="true" node1="0" node2="19"/>
                <iidm:switch id="T" name="U" kind="DISCONNECTOR" open="true" node1="0" node2="17"/>
                <iidm:switch id="V" name="W" kind="DISCONNECTOR" open="true" node1="0" node2="21"/>
                <iidm:switch id="X" name="Y" kind="DISCONNECTOR" open="true" node1="0" node2="11"/>
                <iidm:switch id="Z" name="AA" kind="DISCONNECTOR" open="true" node1="0" node2="13"/>
                <iidm:switch id="AB" name="AC" kind="DISCONNECTOR" open="false" node1="0" node2="15"/>
                <iidm:switch id="AD" name="AE" kind="DISCONNECTOR" open="true" node1="0" node2="8"/>
                <iidm:switch id="AF" name="AG" fictitious="true" kind="DISCONNECTOR" open="true" node1="0" node2="2"/>
                <iidm:switch id="AH" name="AI" kind="DISCONNECTOR" open="false" node1="7" node2="0"/>
                <iidm:switch id="AJ" name="AK" kind="DISCONNECTOR" open="false" node1="1" node2="6"/>
                <iidm:switch id="AL" name="AM" kind="DISCONNECTOR" open="false" node1="1" node2="19"/>
                <iidm:switch id="AN" name="AO" kind="DISCONNECTOR" open="false" node1="1" node2="17"/>
                <iidm:switch id="AP" name="AQ" kind="DISCONNECTOR" open="false" node1="1" node2="21"/>
                <iidm:switch id="AR" name="AS" kind="DISCONNECTOR" open="true" node1="1" node2="11"/>
                <iidm:switch id="AT" name="AU" kind="DISCONNECTOR" open="true" node1="1" node2="13"/>
                <iidm:switch id="AV" name="AW" kind="DISCONNECTOR" open="true" node1="1" node2="15"/>
                <iidm:switch id="AX" name="AY" kind="DISCONNECTOR" open="false" node1="1" node2="8"/>
                <iidm:switch id="AZ" name="BA" fictitious="true" kind="DISCONNECTOR" open="true" node1="1" node2="2"/>
                <iidm:switch id="BB" name="BC" fictitious="true" kind="BREAKER" retained="true" open="true" node1="2" node2="3"/>
                <iidm:switch id="BD" name="BE" kind="BREAKER" retained="true" open="false" node1="3" node2="4"/>
                <iidm:switch id="BF" name="BG" kind="DISCONNECTOR" open="false" node1="3" node2="5"/>
                <iidm:switch id="BH" name="BI" kind="DISCONNECTOR" open="true" node1="9" node2="3"/>
                <iidm:switch id="BJ" name="BK" kind="BREAKER" retained="true" open="false" node1="6" node2="7"/>
                <iidm:switch id="BL" name="BM" kind="BREAKER" retained="true" open="false" node1="8" node2="9"/>
                <iidm:switch id="BN" name="BO" kind="DISCONNECTOR" open="false" node1="9" node2="10"/>
                <iidm:switch id="BP" name="BQ" kind="BREAKER" retained="true" open="true" node1="11" node2="12"/>
                <iidm:switch id="BR" name="BS" kind="BREAKER" retained="true" open="true" node1="13" node2="14"/>
                <iidm:switch id="BT" name="BU" kind="BREAKER" retained="true" open="false" node1="15" node2="16"/>
                <iidm:switch id="BV" name="BW" kind="BREAKER" retained="true" open="false" node1="17" node2="18"/>
                <iidm:switch id="BX" name="BY" kind="BREAKER" retained="true" open="false" node1="19" node2="20"/>
                <iidm:switch id="BZ" name="CA" kind="BREAKER" retained="true" open="false" node1="21" node2="22"/>
                <iidm:bus v="236.44736" angle="15.250391" nodes="0,1,6,7,8,9,10,15,16,17,18,19,20,21,22"/>
            </iidm:nodeBreakerTopology>
            <iidm:generator id="CB" energySource="HYDRO" minP="0.0" maxP="70.0" targetP="0.0" localTargetV="0.0" localTargetQ="0.0" node="12">
                <iidm:reactiveCapabilityCurve>
                    <iidm:point p="0.0" minQ="-59.3" maxQ="60.0"/>
                    <iidm:point p="70.0" minQ="-54.55" maxQ="46.25"/>
                </iidm:reactiveCapabilityCurve>
            </iidm:generator>
            <iidm:generator id="CC" energySource="HYDRO" minP="0.0" maxP="80.0" targetP="0.0" localTargetV="0.0" localTargetQ="0.0" node="14">
                <iidm:reactiveCapabilityCurve>
                    <iidm:point p="0.0" minQ="-56.8" maxQ="57.4"/>
                    <iidm:point p="80.0" minQ="-53.514" maxQ="36.4"/>
                </iidm:reactiveCapabilityCurve>
            </iidm:generator>
            <iidm:generator id="CD" energySource="HYDRO" minP="0.0" maxP="35.0" targetP="21.789589" localTargetV="236.44736" localTargetQ="-20.701546" node="16" p="-21.789589" q="20.693394">
                <iidm:reactiveCapabilityCurve>
                    <iidm:point p="0.0" minQ="-20.6" maxQ="18.1"/>
                    <iidm:point p="35.0" minQ="-21.725" maxQ="6.3500004"/>
                </iidm:reactiveCapabilityCurve>
                <iidm:voltageRegulation mode="VOLTAGE" regulating="true"/>
            </iidm:generator>
            <iidm:load id="CE" loadType="UNDEFINED" p0="-72.18689" q0="50.168945" node="4" p="-72.18689" q="50.168945"/>
            <iidm:load id="CF" loadType="UNDEFINED" p0="8.455854" q0="-23.695925" node="18" p="8.455854" q="-23.695925"/>
            <iidm:load id="CG" loadType="UNDEFINED" p0="90.39911" q0="-51.96869" node="20" p="90.39911" q="-51.96869"/>
            <iidm:load id="CH" loadType="UNDEFINED" p0="-5.102249" q0="4.9081216" node="22" p="-5.102249" q="4.9081216"/>
        </iidm:voltageLevel>
        <iidm:twoWindingsTransformer id="CI" r="2.0" x="14.745" b="3.2E-5" ratedU1="225.0" ratedU2="225.0" node1="2" voltageLevelId1="C" node2="10" voltageLevelId2="N" selectedOperationalLimitsGroupIds1="DEFAULT" selectedOperationalLimitsGroupIds2="DEFAULT">
            <iidm:phaseTapChanger tapPosition="22" loadTapChangingCapabilities="true" regulationMode="CURRENT_LIMITER" regulationValue="930.6667" regulating="false">
                <iidm:terminalRef id="CI" side="ONE"/>
                <iidm:step r="39.78473" x="39.784725" rho="1.0" alpha="-42.8"/>
                <iidm:step r="31.720245" x="31.720242" rho="1.0" alpha="-40.18"/>
                <iidm:step r="23.655737" x="23.655735" rho="1.0" alpha="-37.54"/>
                <iidm:step r="16.263271" x="16.263268" rho="1.0" alpha="-34.9"/>
                <iidm:step r="9.542847" x="9.542842" rho="1.0" alpha="-32.26"/>
                <iidm:step r="3.4944773" x="3.4944773" rho="1.0" alpha="-29.6"/>
                <iidm:step r="-1.8818557" x="-1.8818527" rho="1.0" alpha="-26.94"/>
                <iidm:step r="-7.258195" x="-7.2581954" rho="1.0" alpha="-24.26"/>
                <iidm:step r="-11.962485" x="-11.962484" rho="1.0" alpha="-21.58"/>
                <iidm:step r="-15.994745" x="-15.994745" rho="1.0" alpha="-18.9"/>
                <iidm:step r="-19.354952" x="-19.354952" rho="1.0" alpha="-16.22"/>
                <iidm:step r="-22.043127" x="-22.043129" rho="1.0" alpha="-13.52"/>
                <iidm:step r="-24.73129" x="-24.731287" rho="1.0" alpha="-10.82"/>
                <iidm:step r="-26.747417" x="-26.747417" rho="1.0" alpha="-8.12"/>
                <iidm:step r="-28.091503" x="-28.091503" rho="1.0" alpha="-5.42"/>
                <iidm:step r="-28.763538" x="-28.763536" rho="1.0" alpha="-2.7"/>
                <iidm:step r="-28.763538" x="-28.763536" rho="1.0" alpha="0.0"/>
                <iidm:step r="-28.763538" x="-28.763536" rho="1.0" alpha="2.7"/>
                <iidm:step r="-28.091503" x="-28.091503" rho="1.0" alpha="5.42"/>
                <iidm:step r="-26.747417" x="-26.747417" rho="1.0" alpha="8.12"/>
                <iidm:step r="-24.73129" x="-24.731287" rho="1.0" alpha="10.82"/>
                <iidm:step r="-22.043127" x="-22.043129" rho="1.0" alpha="13.52"/>
                <iidm:step r="-19.354952" x="-19.354952" rho="1.0" alpha="16.22"/>
                <iidm:step r="-15.994745" x="-15.994745" rho="1.0" alpha="18.9"/>
                <iidm:step r="-11.962485" x="-11.962484" rho="1.0" alpha="21.58"/>
                <iidm:step r="-7.258195" x="-7.2581954" rho="1.0" alpha="24.26"/>
                <iidm:step r="-1.8818557" x="-1.8818527" rho="1.0" alpha="26.94"/>
                <iidm:step r="3.4944773" x="3.4944773" rho="1.0" alpha="29.6"/>
                <iidm:step r="9.542847" x="9.542842" rho="1.0" alpha="32.26"/>
                <iidm:step r="16.263271" x="16.263268" rho="1.0" alpha="34.9"/>
                <iidm:step r="23.655737" x="23.655735" rho="1.0" alpha="37.54"/>
                <iidm:step r="31.720245" x="31.720242" rho="1.0" alpha="40.18"/>
                <iidm:step r="39.78473" x="39.784725" rho="1.0" alpha="42.8"/>
            </iidm:phaseTapChanger>
            <iidm:operationalLimitsGroup1 id="DEFAULT">
                <iidm:currentLimits permanentLimit="931.0"/>
            </iidm:operationalLimitsGroup1>
            <iidm:operationalLimitsGroup2 id="DEFAULT">
                <iidm:currentLimits permanentLimit="931.0"/>
            </iidm:operationalLimitsGroup2>
        </iidm:twoWindingsTransformer>
    </iidm:substation>
    <iidm:line id="CJ" r="0.009999999" x="0.100000024" node1="4" voltageLevelId1="C" node2="5" voltageLevelId2="N" selectedOperationalLimitsGroupIds1="DEFAULT" selectedOperationalLimitsGroupIds2="DEFAULT">
        <iidm:operationalLimitsGroup1 id="DEFAULT">
            <iidm:currentLimits permanentLimit="931.0"/>
        </iidm:operationalLimitsGroup1>
        <iidm:operationalLimitsGroup2 id="DEFAULT">
            <iidm:currentLimits permanentLimit="931.0">
                <iidm:temporaryLimit name="IST" value="1640.0" fictitious="true"/>
                <iidm:temporaryLimit name="IT1" acceptableDuration="60"/>
            </iidm:currentLimits>
        </iidm:operationalLimitsGroup2>
    </iidm:line>
    <iidm:extension id="VLTEST12">
        <bbsp:busbarSectionPosition busbarIndex="1" sectionIndex="2"/>
    </iidm:extension>
    <iidm:extension id="VLTEST11">
        <bbsp:busbarSectionPosition busbarIndex="1" sectionIndex="1"/>
    </iidm:extension>
    <iidm:extension id="VLTEST14">
        <bbsp:busbarSectionPosition busbarIndex="1" sectionIndex="4"/>
    </iidm:extension>
    <iidm:extension id="VLTEST13">
        <bbsp:busbarSectionPosition busbarIndex="1" sectionIndex="3"/>
    </iidm:extension>
    <iidm:extension id="VLTEST23">
        <bbsp:busbarSectionPosition busbarIndex="2" sectionIndex="3"/>
    </iidm:extension>
    <iidm:extension id="VLTEST22">
        <bbsp:busbarSectionPosition busbarIndex="2" sectionIndex="2"/>
    </iidm:extension>
    <iidm:extension id="VLTEST24">
        <bbsp:busbarSectionPosition busbarIndex="2" sectionIndex="4"/>
    </iidm:extension>
    <iidm:extension id="VLTEST21">
        <bbsp:busbarSectionPosition busbarIndex="2" sectionIndex="1"/>
    </iidm:extension>
    <iidm:extension id="VLTEST34">
        <bbsp:busbarSectionPosition busbarIndex="3" sectionIndex="4"/>
    </iidm:extension>
    <iidm:extension id="VLTEST33">
        <bbsp:busbarSectionPosition busbarIndex="3" sectionIndex="3"/>
    </iidm:extension>
    <iidm:extension id="VLTEST32">
        <bbsp:busbarSectionPosition busbarIndex="3" sectionIndex="2"/>
    </iidm:extension>
    <iidm:extension id="VLTEST31">
        <bbsp:busbarSectionPosition busbarIndex="3" sectionIndex="1"/>
    </iidm:extension>
</iidm:network>
